<?xml version="1.0" encoding="UTF-8"?>

<!-- generated on 2021-10-05 12:58:15 by Eclipse SUMO netedit Version 1.10.0
<configuration xmlns:xsi="http://www.w3.org/2001/XMLSchema-instance" xsi:noNamespaceSchemaLocation="http://sumo.dlr.de/xsd/netconvertConfiguration.xsd">

    <input>
        <sumo-net-file value="C:\Users\dell\Desktop\SUMO\Assignment\Trail%202\2021-10-05-11-46-51\osm.net.xml"/>
    </input>

    <output>
        <output-file value="C:\Users\dell\Desktop\SUMO\Assignment\Trail%202\2021-10-05-11-46-51\osm.net.xml"/>
        <output.street-names value="true"/>
    </output>

    <processing>
        <geometry.min-radius.fix.railways value="false"/>
        <geometry.max-grade.fix value="false"/>
        <offset.disable-normalization value="true"/>
        <lefthand value="false"/>
    </processing>

    <junctions>
        <no-turnarounds value="true"/>
        <junctions.corner-detail value="5"/>
        <junctions.limit-turn-speed value="5.5"/>
        <rectangular-lane-cut value="false"/>
    </junctions>

    <pedestrian>
        <walkingareas value="false"/>
    </pedestrian>

    <netedit>
        <additional-files value="C:\Users\dell\Desktop\SUMO\Assignment\Trail%202\2021-10-05-11-46-51\Additional.xml"/>
        <route-files value="C:\Users\dell\Desktop\SUMO\Assignment\Trail%202\2021-10-05-11-46-51\Route1.rou.xml"/>
    </netedit>

    <report>
        <aggregate-warnings value="5"/>
    </report>

</configuration>
-->

<additional xmlns:xsi="http://www.w3.org/2001/XMLSchema-instance" xsi:noNamespaceSchemaLocation="http://sumo.dlr.de/xsd/additional_file.xsd">
    <busStop id="busStop_1" lane="-205752980#1_1" startPos="22.94" endPos="32.94"/>
    <busStop id="busStop_2" lane="-28394132#2_1" startPos="27.50" endPos="37.50"/>
    <busStop id="busStop_28456361#1_1_0" lane="28456361#1_1" startPos="19.20" endPos="29.20"/>
    <busStop id="busStop_3" lane="16944921#1_1" startPos="44.65" endPos="54.65"/>
    <busStop id="busStop_4" lane="16944921#1_1" startPos="81.92" endPos="91.92"/>
</additional>
