<?xml version="1.0" encoding="UTF-8"?>

<!-- generated on 2021-10-05 11:47:05 by Eclipse SUMO polyconvert Version 1.10.0
<configuration xmlns:xsi="http://www.w3.org/2001/XMLSchema-instance" xsi:noNamespaceSchemaLocation="http://sumo.dlr.de/xsd/polyconvertConfiguration.xsd">

    <input>
        <net-file value="osm.net.xml"/>
        <osm-files value="osm_bbox.osm.xml"/>
        <osm.keep-full-type value="true"/>
        <type-file value="C:\Program%20Files%20(x86)\Eclipse\Sumo\data\typemap\osmPolyconvert.typ.xml"/>
    </input>

    <output>
        <output-file value="osm.poly.xml"/>
    </output>

    <processing>
        <poi-layer-offset value="5"/>
    </processing>

    <report>
        <verbose value="true"/>
    </report>

</configuration>
-->

<additional xmlns:xsi="http://www.w3.org/2001/XMLSchema-instance" xsi:noNamespaceSchemaLocation="http://sumo.dlr.de/xsd/additional_file.xsd">
    <location netOffset="-676472.76,-6399975.59" convBoundary="-48.24,-26.42,318.91,292.96" origBoundary="11.961193,57.706970,11.967350,57.709821" projParameter="+proj=utm +zone=32 +ellps=WGS84 +datum=WGS84 +units=m +no_defs"/>

    <poly id="158348259" type="building.yes" color="255,230,230" fill="1" layer="-1.00" shape="137.855082,140.010045 147.312558,139.465359 146.549887,126.355694 137.092381,126.900382 137.855082,140.010045"/>
    <poly id="183618949" type="building.yes" color="255,230,230" fill="1" layer="-1.00" shape="114.779392,96.426833 129.172208,101.593942 128.790483,102.680857 130.165566,103.164662 131.498741,114.147783 130.674873,116.475036 124.411055,114.261149 123.955055,115.545472 115.252328,112.477948 115.708326,111.193624 110.278974,109.272681 114.779392,96.426833"/>
    <poly id="183627162" type="building.yes" color="255,230,230" fill="1" layer="-1.00" shape="205.940364,89.114114 211.835947,71.123460 210.092097,68.159830 184.975066,59.891984 181.139943,71.574093 182.555260,72.093121 182.678120,73.648034 183.930041,74.628112 185.591642,74.700867 186.702181,73.322585 194.720708,75.936686 193.137046,80.761193 192.219673,80.453477 190.986032,84.234277 205.940364,89.114114"/>
    <poly id="183627165" type="building.yes" color="255,230,230" fill="1" layer="-1.00" shape="148.868013,75.311433 156.491524,52.056599 156.925665,50.726731 158.943592,51.383608 176.286333,57.047901 184.975066,59.891984 181.139943,71.574093 175.341518,89.256901 167.858629,86.811209 162.058072,84.918536 163.683274,79.962066 168.742695,81.610485 170.942790,82.331084 171.645250,80.188033 173.711054,73.890835 171.193251,73.067143 170.232333,71.709640 170.913407,69.509914 172.465642,69.354921 174.206568,69.932792 175.060514,67.328171 170.730313,65.923479 170.371909,67.022559 162.818482,64.551495 158.280486,78.387803 148.868013,75.311433"/>
    <poly id="183627169" type="building.yes" color="255,230,230" fill="1" layer="-1.00" shape="177.997659,109.951901 188.343802,113.370217 197.043340,116.237103 205.940364,89.114114 190.986032,84.234277 189.862651,83.861802 184.477070,100.291835 181.503037,99.258648 177.997659,109.951901"/>
    <poly id="183627171" type="building.yes" color="255,230,230" fill="1" layer="-1.00" shape="156.184005,102.832156 177.997659,109.951901 181.503037,99.258648 165.496319,94.020689 167.858629,86.811209 162.058072,84.918536 159.537361,92.611584 156.184005,102.832156"/>
    <poly id="183627173" type="building.yes" color="255,230,230" fill="1" layer="-1.00" shape="156.184005,102.832156 159.537361,92.611584 154.860677,91.080261 155.322048,89.673551 145.238948,86.378318 142.112356,95.917668 143.048015,98.533751 156.184005,102.832156"/>
    <poly id="183627177" type="building.yes" color="255,230,230" fill="1" layer="-1.00" shape="155.322048,89.673551 157.718990,82.354105 159.174579,82.362092 160.395403,81.735529 160.808424,80.070305 160.175767,78.983574 158.280486,78.387803 148.868013,75.311433 145.238948,86.378318 155.322048,89.673551"/>
    <poly id="183867233" type="building.yes" color="255,230,230" fill="1" layer="-1.00" shape="278.869372,162.372028 281.518973,154.874201 281.988924,154.225926 282.164960,152.795579 281.593577,151.945613 280.444451,151.616574 268.507772,148.005708 266.087376,147.275402 265.330619,149.839675 262.892304,157.146107 264.186417,157.570674 278.869372,162.372028"/>
    <poly id="183867234" type="building.yes" color="255,230,230" fill="1" layer="-1.00" shape="184.435848,171.412533 185.452827,173.396769 218.006066,184.610050 221.901754,172.908331 200.219858,166.195411 200.711233,165.057565 199.938974,163.752906 198.676693,163.418935 204.691927,145.009903 204.051066,144.792327 194.161151,141.449681 184.435848,171.412533"/>
    <poly id="183867236" type="building.yes" color="255,230,230" fill="1" layer="-1.00" shape="194.161151,141.449681 199.141874,126.361955 201.571222,125.253236 211.238492,128.775658 220.230612,132.045581 217.042360,141.626773 211.562036,139.781491 210.765898,140.248273 209.717737,140.202370 209.019052,139.670125 208.721603,138.832166 207.041620,138.089731 206.083602,138.437948 204.051066,144.792327 194.161151,141.449681"/>
    <poly id="183867249" type="building.yes" color="255,230,230" fill="1" layer="-1.00" shape="247.765104,162.213398 253.226850,145.820216 265.330619,149.839675 262.892304,157.146107 254.822817,154.473886 251.793888,163.549239 249.223531,162.700896 247.765104,162.213398"/>
    <poly id="183867250" type="building.yes" color="255,230,230" fill="1" layer="-1.00" shape="217.042360,141.626773 222.905886,143.578028 222.465774,144.907628 230.270227,147.501287 229.912298,148.589236 237.757941,151.195862 241.756200,139.197661 231.187265,135.691409 220.230612,132.045581 217.042360,141.626773"/>
    <poly id="183867251" type="building.yes" color="255,230,230" fill="1" layer="-1.00" shape="249.223531,162.700896 247.609561,167.535204 233.835446,162.963283 237.757941,151.195862 241.756200,139.197661 266.087376,147.275402 265.330619,149.839675 253.226850,145.820216 247.765104,162.213398 249.223531,162.700896"/>
    <poly id="183876626" type="building.yes" color="255,230,230" fill="1" layer="-1.00" shape="276.787946,122.851271 278.536566,117.532370 281.883811,118.626573 283.315589,114.274795 280.368440,113.309597 283.377538,104.144210 279.753783,102.959858 283.340486,92.459751 284.210206,92.765400 300.763080,98.473678 299.484554,102.731837 297.184004,109.888221 295.566971,115.335506 291.776317,127.766375 276.787946,122.851271"/>
    <poly id="183876627" type="building.apartments" color="255,230,230" fill="1" layer="-1.00" shape="233.121013,89.769401 246.774706,94.235700 242.912190,105.994595 255.624146,110.163280 259.293623,98.997918 267.182014,101.584173 269.392525,94.847444 271.722157,95.607217 273.904788,89.370917 256.764683,83.581292 237.341446,76.922549 233.121013,89.769401"/>
    <poly id="183876628" type="building.yes" color="255,230,230" fill="1" layer="-1.00" shape="212.310685,95.981395 220.393500,71.375604 229.358676,74.309927 237.341446,76.922549 233.121013,89.769401 228.338611,88.199919 226.693407,93.066310 227.383921,93.921485 226.847485,95.815400 225.626545,96.308166 224.476145,99.958830 212.310685,95.981395"/>
    <poly id="183876630" type="building.yes" color="255,230,230" fill="1" layer="-1.00" shape="273.904788,89.370917 283.340486,92.459751 279.753783,102.959858 274.070453,101.116747 270.910370,110.732583 279.823289,113.631293 278.536566,117.532370 276.787946,122.851271 267.358273,119.762712 269.065787,114.564633 263.512515,112.749529 267.182014,101.584173 269.392525,94.847444 271.722157,95.607217 273.904788,89.370917"/>
    <poly id="183876632" type="building.yes" color="255,230,230" fill="1" layer="-1.00" shape="224.476145,99.958830 239.111711,104.757949 237.452745,109.802097 233.028782,108.359784 222.816709,105.014110 224.476145,99.958830"/>
    <poly id="183876635" type="building.yes" color="255,230,230" fill="1" layer="-1.00" shape="212.310685,95.981395 224.476145,99.958830 222.816709,105.014110 220.386955,112.398974 230.599010,115.744642 233.028782,108.359784 237.452745,109.802097 231.257033,128.649096 214.459436,122.807759 204.708885,119.415455 212.310685,95.981395"/>
    <poly id="183876636" type="building.yes" color="255,230,230" fill="1" layer="-1.00" shape="241.319207,120.294253 244.313863,111.183949 262.061323,117.000133 259.066629,126.110425 252.531476,123.962483 252.793363,123.160169 252.393109,122.217374 251.274998,121.588715 249.892135,121.282890 248.928855,121.887265 248.660526,122.700444 241.319207,120.294253"/>
    <poly id="183876637" type="building.yes" color="255,230,230" fill="1" layer="-1.00" shape="261.216409,138.467112 285.634834,146.459613 291.776317,127.766375 276.787946,122.851271 267.358273,119.762712 261.216409,138.467112"/>
    <poly id="183876638" type="building.yes" color="255,230,230" fill="1" layer="-1.00" shape="267.593277,133.194888 270.298862,124.963756 279.087172,127.845860 278.475242,129.691872 276.904626,129.177153 275.259480,134.177303 273.459039,133.596778 273.005048,134.970357 267.593277,133.194888"/>
    <poly id="183876639" type="building.yes" color="255,230,230" fill="1" layer="-1.00" shape="231.257033,128.649096 246.651481,133.693294 254.163532,136.151566 261.216409,138.467112 267.358273,119.762712 269.065787,114.564633 263.512515,112.749529 255.624146,110.163280 242.912190,105.994595 239.111711,104.757949 237.452745,109.802097 231.257033,128.649096"/>
    <poly id="183924436" type="building.yes" color="255,230,230" fill="1" layer="-1.00" shape="248.501488,73.476216 273.831477,82.054787 277.072523,72.498238 276.425697,72.280390 285.454777,45.698416 277.941000,43.139691 269.088638,69.093998 256.818247,64.922325 265.704700,38.869158 260.265939,37.025638 255.090430,52.193957 250.063215,50.491103 248.364967,55.477789 245.805205,62.968424 251.432076,64.875904 248.501488,73.476216"/>
    <poly id="183924437" type="building.yes" color="255,230,230" fill="1" layer="-1.00" shape="250.919825,46.192154 254.000950,37.152528 255.568508,32.561437 240.517040,27.443070 238.922265,32.111007 232.240703,51.694776 230.047529,50.952152 228.014114,56.916314 222.804708,55.149776 236.195996,15.883125 249.401321,20.374370 264.223461,25.415837 260.265939,37.025638 255.090430,52.193957 250.063215,50.491103 248.046655,49.667023 247.324251,48.041254 247.869416,46.493303 249.534391,45.808185 250.919825,46.192154"/>
    <poly id="183924438" type="building.yes" color="255,230,230" fill="1" layer="-1.00" shape="245.805205,62.968424 244.564959,66.626296 229.625305,61.546302 230.871494,57.888687 245.805205,62.968424"/>
    <poly id="183924440" type="building.yes" color="255,230,230" fill="1" layer="-1.00" shape="236.365063,51.396063 238.350468,45.574722 246.399398,48.312881 244.413982,54.134218 236.365063,51.396063"/>
    <poly id="183924442" type="building.yes" color="255,230,230" fill="1" layer="-1.00" shape="244.413982,54.134218 248.364967,55.477789 245.805205,62.968424 230.871494,57.888687 231.617140,55.714093 233.386869,56.315546 234.879233,55.756636 235.488227,53.977376 236.365063,51.396063 244.413982,54.134218"/>
    <poly id="183924443" type="building.yes" color="255,230,230" fill="1" layer="-1.00" shape="219.874177,63.750107 222.804708,55.149776 228.014114,56.916314 230.871494,57.888687 229.625305,61.546302 244.564959,66.626296 245.805205,62.968424 251.432076,64.875904 248.501488,73.476216 233.855745,68.498260 219.874177,63.750107"/>
    <poly id="183924444" type="building.yes" color="255,230,230" fill="1" layer="-1.00" shape="232.240703,51.694776 234.610107,52.500858 235.488227,53.977376 234.879233,55.756636 233.386869,56.315546 231.617140,55.714093 230.871494,57.888687 228.014114,56.916314 230.047529,50.952152 232.240703,51.694776"/>
    <poly id="233920927" type="tourism.yes" color="207,245,201" fill="1" layer="-2.00" shape="73.224587,22.270753 88.664188,27.795639 91.831571,28.502784 94.642590,29.172040 122.608394,38.344332 136.003241,42.732022 138.487659,43.364718 140.987133,44.198733 149.449226,47.177736 133.400497,92.649048 126.712714,90.305124 124.260424,89.484329 116.355195,86.462861 71.949817,71.175700 66.286178,69.289160 57.347151,66.300611 59.375665,60.715187 62.950954,50.872133 73.224587,22.270753"/>
    <poly id="355942948" type="leisure.playground" color="207,245,201" fill="1" layer="-2.00" shape="123.713721,141.642862 131.537223,140.803663 130.172967,123.442685 122.360147,124.037107 123.713721,141.642862"/>
    <poly id="44698155" type="building.retail" color="255,230,230" fill="1" layer="-1.00" shape="133.400497,92.649048 126.712714,90.305124 136.780350,61.784046 134.999675,61.159860 140.987133,44.198733 149.449226,47.177736 133.400497,92.649048"/>
    <poly id="44698173" type="building.yes" color="255,230,230" fill="1" layer="-1.00" shape="119.944653,46.443606 133.338988,50.842414 136.003241,42.732022 122.608394,38.344332 119.944653,46.443606"/>
    <poly id="72055056" type="building.yes" color="255,230,230" fill="1" layer="-1.00" shape="214.107714,61.078512 165.866879,44.942340 163.784900,44.249212 162.173523,43.710461 154.710843,41.209945 131.898818,33.578447 106.234267,24.997307 98.300916,22.342527 112.971954,-26.422044 140.011204,-17.067252 188.881325,-0.156990 216.090526,9.261513 216.966225,9.567408 217.918860,9.887820 230.256538,14.162639 214.107714,61.078512"/>
    <poly id="73850681" type="amenity.townhall" color="237,199,199" fill="1" layer="-1.00" shape="289.400943,34.076990 304.235877,39.096875 318.905969,44.065003 302.689351,91.824839 287.843192,86.793308 273.831477,82.054787 277.072523,72.498238 276.425697,72.280390 285.454777,45.698416 289.400943,34.076990"/>
    <poly id="73850681#1" type="building.yes" color="255,230,230" fill="1" layer="-1.00" shape="289.400943,34.076990 304.235877,39.096875 318.905969,44.065003 302.689351,91.824839 287.843192,86.793308 273.831477,82.054787 277.072523,72.498238 276.425697,72.280390 285.454777,45.698416 289.400943,34.076990"/>
    <poly id="73850823" type="building.yes" color="255,230,230" fill="1" layer="-1.00" shape="141.799035,158.141675 178.276098,170.094931 193.760209,121.990485 165.561847,113.376006 136.618381,104.060252 136.524877,118.191467 139.796680,119.237656 139.271490,120.875676 148.039959,123.667439 148.565153,122.029420 157.380284,124.845543 156.848158,126.505552 165.574917,129.295529 166.107534,127.624394 176.499711,130.944368 174.718641,136.462542 173.142062,135.947604 170.242272,144.939479 171.819335,145.443290 169.271996,153.335825 159.417922,150.128607 159.885731,148.711031 151.096425,145.851440 150.628618,147.269016 140.274635,143.895041 141.799035,158.141675"/>
    <poi id="1629179161" type="amenity.restaurant" color="237,199,199" layer="4.00" x="299.48" y="102.73"/>
    <poi id="1629179169" type="shop.convenience" color="237,199,255" layer="4.00" x="295.57" y="115.34"/>
    <poi id="2137926938" type="amenity.cafe" color="237,199,199" layer="4.00" x="262.43" y="74.25"/>
    <poi id="2157296093" type="shop.hairdresser" color="237,199,255" layer="4.00" x="247.29" y="82.40"/>
    <poi id="2157296263" type="shop.beauty" color="237,199,255" layer="4.00" x="178.00" y="118.75"/>
    <poi id="2157296266" type="shop.travel_agency" color="237,199,255" layer="4.00" x="159.34" y="112.66"/>
    <poi id="2157296269" type="shop.clothes" color="237,199,255" layer="4.00" x="196.07" y="113.55"/>
    <poi id="2157296272" type="shop.hairdresser" color="237,199,255" layer="4.00" x="201.52" y="126.59"/>
    <poi id="2157296332" type="amenity.waste_basket" color="237,199,199" layer="4.00" x="213.99" y="68.43"/>
    <poi id="606333928" type="amenity.restaurant" color="237,199,199" layer="4.00" x="193.76" y="121.99"/>
    <poi id="606333929" type="amenity.school" color="237,199,199" layer="4.00" x="214.27" y="117.56"/>
    <poi id="831301198" type="amenity.cafe" color="237,199,199" layer="4.00" x="139.52" y="57.84"/>
</additional>
